[TITLE]
;;Project Title/Notes
Exported by StormDesk 3.0.0
Exported by StormDesk 3.1.0

[OPTIONS]
;;Option             Value
FLOW_UNITS           CMS
INFILTRATION         HORTON
FLOW_ROUTING         DYNWAVE
LINK_OFFSETS         DEPTH
MIN_SLOPE            1
ALLOW_PONDING        YES
SKIP_STEADY_STATE    NO

START_DATE           05/01/2025
START_TIME           00:00:00
REPORT_START_DATE    05/01/2025
REPORT_START_TIME    00:00:00
END_DATE             05/01/2025
END_TIME             05:00:00
SWEEP_START          01/01
SWEEP_END            12/31
DRY_DAYS             5
REPORT_STEP          00:05:00
WET_STEP             00:05:00
DRY_STEP             01:00:00
ROUTING_STEP         0:00:01 
RULE_STEP            00:00:00

INERTIAL_DAMPING     FULL
NORMAL_FLOW_LIMITED  BOTH
FORCE_MAIN_EQUATION  H-W
SURCHARGE_METHOD     SLOT
VARIABLE_STEP        0.25
LENGTHENING_STEP     0
MIN_SURFAREA         12.566
MAX_TRIALS           15
HEAD_TOLERANCE       0.005
SYS_FLOW_TOL         5
LAT_FLOW_TOL         5
MINIMUM_STEP         2
THREADS              12

[EVAPORATION]
;;Data Source    Parameters
;;-------------- ----------------
CONSTANT         0
DRY_ONLY         NO

[JUNCTIONS]
;;Name           Elevation  MaxDepth   InitDepth  SurDepth   Aponded   
;;-------------- ---------- ---------- ---------- ---------- ----------
RJHJ06396        396.00     5.197      0          5.197      0.35      
RJHJ06398        396.00     4.973      0          4.973      0.35      
RJHJ06401        395.90     4.851      0          4.851      0.35      
RJHJ06405        396.00     4.459      0          4.459      0.35      
RJHJ06408        396.00     4.262      0          4.262      0.35      
RJHJ06410        395.98     4.032      0          4.032      0.35      
RJHJ06414        395.91     3.846      0          3.846      0.35      
RJHJ06417        395.89     3.613      0          3.613      0.35      
RJHJ06419        395.90     3.357      0          3.357      0.35      
RJHJ06421        395.90     3.151      0          3.151      0.35      
RJHJ06425        395.90     3.041      0          3.041      0.35      
RJHJ06428        395.90     2.806      0          2.806      0.35      
RJHJ10236        396.00     4.811      0          4.811      0.35      
RJHJ10238        396.07     5.287      0          5.287      0.35      
RJHJ10240        396.14     5.32       0          5.32       0.35      
RJHJ10242        396.09     5.363      0          5.363      0.35      
RJHJ04696        396.43     2.3049     0          2.3049     0.35      
RJHJ04697        396.36     2.3029     0          2.3029     0.35      
RJHJ04698        396.52     2.297      0          2.297      0.35      
RJHJ04699        396.76     2.2985     0          2.2985     0.35      
RJHJ04702        396.78     2.3031     0          2.3031     0.35      
RJHJ04703        397.09     2.2007     0          2.2007     0.35      
RJHJ04704        397.14     2.1984     0          2.1984     0.35      
RJHJ04705        397.24     2.2019     0          2.2019     0.35      
RJHJ04706        397.38     2.1961     0          2.1961     0.35      
RJHJ04707        397.54     2.1992     0          2.1992     0.35      
RJHJ04708        397.81     2.0967     0          2.0967     0.35      
RJHJ04709        397.59     2.2033     0          2.2033     0.35      
RJHJ04710        398.34     1.5011     0          1.5011     0.35      
RJHJ04711        398.33     1.4952     0          1.4952     0.35      
RJHJ04712        398.20     2.2211     0          2.2211     0.35      
RJHJ04713        398.20     2.3014     0          2.3014     0.35      
RJHJ04714        398.20     2.4579     0          2.4579     0.35      
RJHJ04715        398.20     2.3374     0          2.3374     0.35      
RJHJ04716        398.20     2.1766     0          2.1766     0.35      
RJHJ04717        398.20     2.541      0          2.541      0.35      
RJHJ04718        398.20     2.7756     0          2.7756     0.35      
RJHJ06315        397.87     8.517      0          8.517      0.35      
RJHJ06335        395.49     2.314      0          2.314      0.35      
RJHJ06337        395.49     2.408      0          2.408      0.35      
RJHJ06339        395.57     3.124      0          3.124      0.35      
RJHJ06340        395.58     3.201      0          3.201      0.35      
RJHJ06344        396.11     2.779      0          2.779      0.35      
RJHJ06347        396.14     2.738      0          2.738      0.35      
RJHJ06349        396.17     2.71       0          2.71       0.35      
RJHJ06352        396.33     2.377      0          2.377      0.35      
RJHJ06354        396.54     2.117      0          2.117      0.35      
RJHJ06357        396.66     1.877      0          1.877      0.35      
RJHJ06360        396.64     1.82       0          1.82       0.35      
RJHJ06362        396.97     1.448      0          1.448      0.35      
RJHJ06364        396.97     1.58       0          1.58       0.35      
RJHJ06366        396.81     1.82       0          1.82       0.35      
RJHJ06369        396.68     2.047      0          2.047      0.35      
RJHJ06371        396.32     2.578      0          2.578      0.35      
RJHJ06373        396.30     2.727      0          2.727      0.35      
RJHJ06375        396.09     3.048      0          3.048      0.35      
RJHJ06377        396.04     3.023      0          3.023      0.35      
RJHJ06379        396.04     2.984      0          2.984      0.35      
RJHJ06381        395.92     3.306      0          3.306      0.35      
RJHJ06383        395.67     3.803      0          3.803      0.35      
RJHJ06385        395.61     3.906      0          3.906      0.35      
RJHJ06387        395.68     3.879      0          3.879      0.35      
RJHJ06389        395.41     3.753      0          3.753      0.35      
RJHJ06394        395.25     3.435      0          3.435      0.35      
RJHJ06473        400.32     3.382      0          3.382      0.35      
RJHJ06476        400.50     3.239      0          3.239      0.35      
RJHJ06477        401.16     2.757      0          2.757      0.35      
RJHJ06480        401.46     2.444      0          2.444      0.35      
RJHJ06483        401.77     1.897      0          1.897      0.35      
RJHJ06484        402.01     1.577      0          1.577      0.35      
RJHJ06486        402.01     1.507      0          1.507      0.35      
RJHJ10253        402.69     4.063      0          4.063      0.35      
RJHJ10256        401.75     4.752      0          4.752      0.35      
RJHJ10258        401.49     4.789      0          4.789      0.35      
RJHJ10259        401.49     5.095      0          5.095      0.35      
RJHJ10260        397.92     5.196      0          5.196      0.35      
RJHJ10263        397.65     8.576      0          8.576      0.35      
RJHJ10264        397.89     8.611      0          8.611      0.35      
RJHJ10265        398.02     8.5        0          8.5        0.35      
RJHJ10266        396.37     10.1009    0          1.0009     0.35      
RJHJ10267        395.99     3.047      0          3.047      0.35      
RJHJ10268        396.00     2.984      0          2.984      0.35      
RJHJ10269        396.00     3.061      0          3.061      0.35      
RJHJ10271        395.74     3.62       0          3.62       0.35      
RJHJ10273        395.67     3.723      0          3.723      0.35      
RJHJ10274        395.49     3.641      0          3.641      0.35      
RJHJ10275        395.49     3.846      0          3.846      0.35      
RJHJ10276        395.25     3.675      0          3.675      0.35      
RJHJ10277        395.25     3.376      0          3.376      0.35      
RJHJ10278        395.06     3.401      0          3.401      0.35      
RJHJ10279        394.83     3.479      0          3.479      0.35      
RJHJ10280        395.68     3.175      0          3.175      0.35      
RJHJ10281        395.57     2.925      0          2.925      0.35      
RJHJ10282        395.56     2.701      0          2.701      0.35      
RJHJ10283        395.51     2.524      0          2.524      0.35      
RJHJ11118        400.24     2.05       0          2.05       0.35      
RJHJ11119        398.14     3.321      0          3.321      0.35      
RJHJ11125        398.11     3.535      0          3.535      0.35      
RJHJ11127        399.43     3.3488     0          3.3488     0.35      
RJHJ11128        399.20     3.4246     0          3.4246     0.35      
RJHJ11129        398.96     3.5595     0          3.5595     0.35      
RJHJ11130        398.63     3.4955     0          3.4955     0.35      
RJHJ11131        398.56     3.4768     0          3.4768     0.35      
RJHJ11132        398.11     4.2011     0          4.2011     0.35      
RJHJ11184        402.89     0.8648     0          0.8648     0.35      
RJHJ11185        402.77     1          0          1          0.35      
RJHJ11186        402.70     1.7389     0          1.7389     0.35      
RJHJ11187        402.70     2.0529     0          2.0529     0.35      
RJHJ11188        402.45     2.5605     0          2.5605     0.35      
RJHJ11189        402.43     2.9651     0          2.9651     0.35      
RJHJ11190        402.46     3.7013     0          3.7013     0.35      
RJHJ11192        402.46     3.3074     0          3.3074     0.35      
RJHJ11193        402.11     3.302      0          3.302      0.35      
RJHJ11194        402.16     3.1264     0          3.1264     0.35      
RJHJ11196        402.07     2.9209     0          2.9209     0.35      
RJHJ11197        402.12     2.761      0          2.761      0.35      
RJHJ11199        401.98     2.7047     0          2.7047     0.35      
RJHJ11200        401.78     2.5539     0          2.5539     0.35      
RJHJ11203        401.76     2.5602     0          2.5602     0.35      
RJHJ11206        401.78     2.7396     0          2.7396     0.35      
RJHJ11209        402.13     1.4967     0          1.4967     0.35      
RJHJ11210        401.95     1.5734     0          1.5734     0.35      
RJHJ11211        401.84     1.5595     0          1.5595     0.35      
RJHJ11212        401.57     1.6369     0          1.6369     0.35      
RJHJ11213        401.41     1.5522     0          1.5522     0.35      
RJHJ11219        400.72     2.398      0          2.398      0.35      
RJHJ11221        400.64     2.8501     0          2.8501     0.35      
RJHJ11222        400.67     2.9481     0          2.9481     0.35      
RJHJ11223        400.67     3.0022     0          3.0022     0.35      
RJHJ11225        400.00     3.5033     0          3.5033     0.35      
RJHJ11226        399.91     3.9324     0          3.9324     0.35      
RJHJ11229        399.93     3.9376     0          3.9376     0.35      
RJHJ11231        399.84     3.535      0          3.535      0.35      
RJHJ11236        400.28     2.8039     0          2.8039     0.35      
RJHJ11239        401.11     1.978      0          1.978      0.35      
RJHJ11241        401.03     2.099      0          2.099      0.35      
RJHJ11243        401.08     2.246      0          2.246      0.35      
RJHJ11245        400.89     2.477      0          2.477      0.35      
RJHJ11247        400.78     2.6207     0          2.6207     0.35      
RJHJ11249        400.79     2.559      0          2.559      0.35      
RJHJ11251        400.79     2.7919     0          2.7919     0.35      
RJHJ11255        401.47     1.5415     0          1.5415     0.35      
RJHJ11257        401.15     1.9395     0          1.9395     0.35      
RJHJ11258        400.99     2.2361     0          2.2361     0.35      
RJHJ11259        400.81     2.6021     0          2.6021     0.35      
RJHJ11261        400.68     2.6546     0          2.6546     0.35      
RJHJ11262        400.47     2.717      0          2.717      0.35      
RJHJ11263        401.53     1.553      0          1.553      0.35      
RJHJ11266        401.53     1.568      0          1.568      0.35      
RJHJ11269        401.49     1.656      0          1.656      0.35      
RJHJ11270        401.44     1.7113     0          1.7113     0.35      
RJHJ11271        401.25     1.8528     0          1.8528     0.35      
RJHJ11272        401.06     2.1715     0          2.1715     0.35      
RJHJ11273        401.17     2.2141     0          2.2141     0.35      
RJHJ11275        400.95     2.6192     0          2.6192     0.35      
RJHJ11278        400.95     2.5975     0          2.5975     0.35      
RJHJ11279        400.38     3.1658     0          3.1658     0.35      
RJHJ11280        400.22     3.1967     0          3.1967     0.35      
RJHJ11282        400.08     3.0702     0          3.0702     0.35      
RJHJ11283        400.18     3.4463     0          3.4463     0.35      
RJHJ11285        400.08     2.7288     0          2.7288     0.35      
RJHJ11288        399.15     3.4785     0          3.4785     0.35      
RJHJ11289        399.21     3.57       0          3.57       0.35      
RJHJ11292        402.67     1.8457     0          1.8457     0.35      
RJHJ11293        401.73     3.0198     0          3.0198     0.35      
RJHJ11294        401.42     3.5111     0          3.5111     0.35      
RJHJ11295        401.16     3.9468     0          3.9468     0.35      
RJHJ11298        402.74     1.8173     0          1.8173     0.35      
RJHJ11299        401.74     2.9982     0          2.9982     0.35      
RJHJ11300        400.54     4.3971     0          4.3971     0.35      
RJHJ11338        402.22     2.8319     0          2.8319     0.35      
RJHJ11340        402.08     2.7874     0          2.7874     0.35      
RJHJ11342        401.47     3.198      0          3.198      0.35      
RJHJ11346        401.39     3.0565     0          3.0565     0.35      
RJHJ11348        401.34     3.0135     0          3.0135     0.35      
RJHJ11350        401.09     2.9124     0          2.9124     0.35      
RJHJ11352        401.11     2.8358     0          2.8358     0.35      
RJHJ11354        400.98     2.7268     0          2.7268     0.35      
RJHJ11356        401.04     2.6263     0          2.6263     0.35      
RJHJ11359        400.80     2.618      0          2.618      0.35      
RJHJ11362        400.32     3.4973     0          3.4973     0.35      
RJHJ11363        400.21     3.3228     0          3.3228     0.35      
RJHJ11365        400.13     3.5647     0          3.5647     0.35      
RJHJ11367        400.05     3.5661     0          3.5661     0.35      
RJHJ11369        399.79     3.512      0          3.512      0.35      
RJHJ11373        399.75     3.4124     0          3.4124     0.35      
RJHJ11375        399.86     3.3488     0          3.3488     0.35      
RJHJ11377        399.46     3.3202     0          3.3202     0.35      
RJHJ11379        399.42     3.3321     0          3.3321     0.35      
RJHJ11381        399.33     3.3997     0          3.3997     0.35      
RJHJ11383        399.22     3.2964     0          3.2964     0.35      
RJHJ11385        399.15     3.3335     0          3.3335     0.35      
RJHJ11388        399.22     3.5485     0          3.5485     0.35      
RJHJ11389        399.08     3.7271     0          3.7271     0.35      
RJHJ11392        399.11     3.8084     0          3.8084     0.35      
RJHJ11394        399.07     3.9499     0          3.9499     0.35      
RJHJ11395        398.98     4.1038     0          4.1038     0.35      
RJHJ11397        398.94     4.3204     0          4.3204     0.35      
RJHJ11400        398.84     4.5537     0          4.5537     0.35      
RJHJ11402        398.87     4.7499     0          4.7499     0.35      
RJHJ11405        398.79     5.0924     0          5.0924     0.35      
RJHJ11407        398.69     5.3471     0          5.3471     0.35      
RJHJ11409        398.76     5.6283     0          5.6283     0.35      
RJHJ11411        398.40     6.077      0          6.077      0.35      
RJHJ11413        398.45     6.3065     0          6.3065     0.35      
RJHJ11415        397.08     7.8462     0          7.8462     0.35      
RJHJ11417        396.88     8.5117     0          8.5117     0.35      
RJHJ11418        396.68     8.7031     0          8.7031     0.35      
RJHJ11420        396.75     8.8213     0          8.8213     0.35      
RJHJ11422        396.37     9.1009     0          9.1009     0.35      
RJHJ11423        395.59     9.4973     0          9.4973     0.35      
RJHJ11543        408.66     1.5023     0          1.5023     0.35      
RJHJ11544        408.39     1.6525     0          1.6525     0.35      
RJHJ11545        408.18     1.5987     0          1.5987     0.35      
RJHJ11546        407.88     1.4971     0          1.4971     0.35      
RJHJ11547        406.72     2.3477     0          2.3477     0.35      
RJHJ11548        406.29     2.0973     0          2.0973     0.35      
RJHJ11549        406.12     1.8101     0          1.8101     0.35      
RJHJ11550        406.05     1.6788     0          1.6788     0.35      
RJHJ11555        405.03     2.1599     0          2.1599     0.35      
RJHJ11556        404.86     2.4642     0          2.4642     0.35      
RJHJ11558        404.18     3.0904     0          3.0904     0.35      
RJHJ11560        404.18     3.4695     0          3.4695     0.35      
RJHJ11561        403.92     3.6993     0          3.6993     0.35      
RJHJ11563        403.83     3.598      0          3.598      0.35      
RJHJ11565        403.66     3.5179     0          3.5179     0.35      
RJHJ11566        403.48     3.3593     0          3.3593     0.35      
RJHJ11569        403.33     3.2042     0          3.2042     0.35      
RJHJ11584        404.01     1.9147     0          1.9147     0.35      
RJHJ11586        403.33     2.5432     0          2.5432     0.35      
RJHJ11589        403.33     2.9025     0          2.9025     0.35      
RJHJ11591        403.25     2.9038     0          2.9038     0.35      
RJHJ11592        403.27     2.9466     0          2.9466     0.35      
RJHJ11594        403.16     2.9321     0          2.9321     0.35      
RJHJ11596        403.02     3.0229     0          3.0229     0.35      
RJHJ11599        402.99     2.8033     0          2.8033     0.35      
RJHJ11601        402.78     2.8        0          2.8        0.35      
RJHJ11603        402.58     2.7451     0          2.7451     0.35      
RJHJ11605        402.58     2.9372     0          2.9372     0.35      
RJHJ11607        402.06     3.1294     0          3.1294     0.35      
RJHJ11609        400.90     3.697      0          3.697      0.35      
RJHJ11611        400.30     4.0021     0          4.0021     0.35      
RJHJ11613        401.50     1.8829     0          1.8829     0.35      
RJHJ11614        401.43     2.1994     0          2.1994     0.35      
RJHJ11615        401.34     2.4285     0          2.4285     0.35      
RJHJ11619        400.96     2.8002     0          2.8002     0.35      
RJHJ11622        400.55     3.2631     0          3.2631     0.35      
RJHJ11625        400.28     3.6703     0          3.6703     0.35      
RJHJ11626        399.47     4.2635     0          4.2635     0.35      
RJHJ11632        401.26     2.3733     0          2.3733     0.35      
RJHJ11634        400.92     2.6991     0          2.6991     0.35      
RJHJ11635        400.95     2.8514     0          2.8514     0.35      
RJHJ11636        400.76     3.079      0          3.079      0.35      
RJHJ11637        400.51     3.2014     0          3.2014     0.35      
RJHJ11638        400.50     3.222      0          3.222      0.35      
RJHJ11639        400.46     3.191      0          3.191      0.35      
RJHJ11640        400.37     3.303      0          3.303      0.35      
RJHJ11641        400.20     3.3835     0          3.3835     0.35      
RJHJ11643        400.02     3.3233     0          3.3233     0.35      
RJHJ11644        399.92     3.4981     0          3.4981     0.35      
RJHJ11647        399.75     3.8499     0          3.8499     0.35      
RJHJ11659        401.93     1.542      0          1.542      0.35      
RJHJ11660        401.81     1.595      0          1.595      0.35      
RJHJ11661        401.70     1.597      0          1.597      0.35      
RJHJ11662        401.59     1.672      0          1.672      0.35      
RJHJ11663        401.31     1.754      0          1.754      0.35      
RJHJ11664        401.15     1.7841     0          1.7841     0.35      
RJHJ11667        400.89     2.024      0          2.024      0.35      
RJHJ11668        400.72     2.154      0          2.154      0.35      
RJHJ11669        400.51     2.222      0          2.222      0.35      
RJHJ11670        400.14     2.4985     0          2.4985     0.35      
RJHJ11671        400.04     2.5543     0          2.5543     0.35      
RJHJ11673        399.93     2.6786     0          2.6786     0.35      
RJHJ11677        400.52     2.477      0          2.477      0.35      
RJHJ11678        400.26     2.5438     0          2.5438     0.35      
RJHJ11680        400.13     2.4834     0          2.4834     0.35      
RJHJ11682        399.72     2.696      0          2.696      0.35      
RJHJ11683        399.44     2.9302     0          2.9302     0.35      
RJHJ11686        399.32     2.8553     0          2.8553     0.35      
RJHJ11688        399.09     3.0412     0          3.0412     0.35      
RJHJ11689        398.94     3.06       0          3.06       0.35      
RJHJ11732        399.15     2.9353     0          2.9353     0.35      
RJHJ11733        399.21     2.9628     0          2.9628     0.35      
RJHJ11734        398.89     3.781      0          3.781      0.35      
RJHJ11735        398.71     3.855      0          3.855      0.35      
RJHJ11737        398.60     3.918      0          3.918      0.35      
RJHJ11738        398.42     4.0025     0          4.0025     0.35      
RJHJ11741        398.49     4.0742     0          4.0742     0.35      
RJHJ11742        398.44     4.171      0          4.171      0.35      
RJHJ11744        398.15     4.154      0          4.154      0.35      
RJHJ11746        397.80     4.6786     0          4.6786     0.35      
RJHJ11747        397.82     4.8518     0          4.8518     0.35      
RJHJ11748        397.63     4.9501     0          4.9501     0.35      
RJHJ11749        397.61     4.8648     0          4.8648     0.35      
RJHJ11750        397.59     4.7542     0          4.7542     0.35      
RJHJ11751        397.52     4.3182     0          4.3182     0.35      
RJHJ11752        397.33     4.296      0          4.296      0.35      
RJHJ11753        397.08     4.4429     0          4.4429     0.35      
RJHJ11754        397.73     4.4802     0          4.4802     0.35      
RJHJ11755        397.73     4.7345     0          4.7345     0.35      
RJHJ11756        397.79     4.9542     0          4.9542     0.35      
RJHJ11758        402.05     2.247      0          2.247      0.35      
RJHJ11760        401.90     2.2528     0          2.2528     0.35      
RJHJ11763        401.64     2.2133     0          2.2133     0.35      
RJHJ11766        401.42     2.2039     0          2.2039     0.35      
RJHJ11769        401.14     2.2958     0          2.2958     0.35      
RJHJ11772        400.82     2.3664     0          2.3664     0.35      
RJHJ11775        399.90     3.1048     0          3.1048     0.35      
RJHJ11776        399.62     3.2535     0          3.2535     0.35      
RJHJ11777        399.18     3.2485     0          3.2485     0.35      
RJHJ11778        399.22     3.4996     0          3.4996     0.35      
RJHJ11779        399.17     3.4479     0          3.4479     0.35      
RJHJ11780        398.98     3.4905     0          3.4905     0.35      
RJHJ11781        398.87     3.2812     0          3.2812     0.35      
RJHJ11782        398.38     3.8049     0          3.8049     0.35      
RJHJ11783        398.35     3.6465     0          3.6465     0.35      
RJHJ11784        398.12     3.6714     0          3.6714     0.35      
RJHJ11786        398.01     4.0694     0          4.0694     0.35      
RJHJ11787        397.40     4.483      0          4.483      0.35      
RJHJ11810        401.48     3.3034     0          3.3034     0.35      
RJHJ11812        400.46     3.7818     0          3.7818     0.35      
RJHJ11813        399.55     4.6007     0          4.6007     0.35      
RJHJ11815        399.44     4.8733     0          4.8733     0.35      
RJHJ11817        399.04     4.8222     0          4.8222     0.35      
RJHJ11821        398.91     4.7525     0          4.7525     0.35      
RJHJ11823        398.57     4.5284     0          4.5284     0.35      
RJHJ11825        398.28     4.4633     0          4.4633     0.35      
RJHJ11827        398.14     4.3525     0          4.3525     0.35      
RJHJ11830        398.09     4.3061     0          4.3061     0.35      
RJHJ11831        398.09     4.042      0          4.042      0.35      
RJHJ11832        397.94     4.4571     0          4.4571     0.35      
RJHJ11834        397.43     4.5524     0          4.5524     0.35      
RJHJ11836        397.02     5.2489     0          5.2489     0.35      
RJHJ11837        396.61     5.5302     0          5.5302     0.35      
RJHJ11838        396.32     5.5029     0          5.5029     0.35      
RJHJ11840        396.32     5.3751     0          5.3751     0.35      
RJHJ11841        396.60     5.4275     0          5.4275     0.35      
RJHJ11842        396.60     5.7123     0          5.7123     0.35      
RJHJ11843        396.55     5.7043     0          5.7043     0.35      
RJHJ11844        396.29     5.9993     0          5.9993     0.35      
RJHJ11845        395.97     7.0869     0          7.0869     0.35      
RJHJ11846        395.97     6.0955     0          6.0955     0.35      
RJHJ11847        396.14     5.8696     0          5.8696     0.35      
RJHJ11848        396.37     6.0657     0          6.0657     0.35      
RJHJ11852        398.43     2.7975     0          2.7975     0.35      
RJHJ11853        398.29     2.7545     0          2.7545     0.35      
RJHJ11854        398.43     2.722      0          2.722      0.35      
RJHJ11855        398.18     2.9503     0          2.9503     0.35      
RJHJ11856        398.47     2.8747     0          2.8747     0.35      
RJHJ11857        398.41     2.8233     0          2.8233     0.35      
RJHJ11858        398.25     2.8899     0          2.8899     0.35      
RJHJ11859        397.90     3.2458     0          3.2458     0.35      
RJHJ11860        397.90     3.4112     0          3.4112     0.35      
RJHJ11861        397.85     3.5155     0          3.5155     0.35      
RJHJ11865        400.29     2.3049     0          2.3049     0.35      
RJHJ11866        400.13     2.3229     0          2.3229     0.35      
RJHJ11868        399.91     2.418      0          2.418      0.35      
RJHJ11869        399.92     2.4021     0          2.4021     0.35      
RJHJ11870        399.78     2.3831     0          2.3831     0.35      
RJHJ11871        399.78     2.5016     0          2.5016     0.35      
RJHJ11872        399.24     2.2708     0          2.2708     0.35      
RJHJ11874        399.24     2.6436     0          2.6436     0.35      
RJHJ11875        399.07     2.7925     0          2.7925     0.35      
RJHJ11877        399.07     2.7177     0          2.7177     0.35      
RJHJ11878        398.86     2.8183     0          2.8183     0.35      
RJHJ11879        398.66     2.8245     0          2.8245     0.35      
RJHJ11880        398.64     2.8328     0          2.8328     0.35      
RJHJ11883        398.28     2.6648     0          2.6648     0.35      
RJHJ11884        398.28     3.0108     0          3.0108     0.35      
RJHJ11885        398.24     3.1429     0          3.1429     0.35      
RJHJ11886        397.67     3.7248     0          3.7248     0.35      
RJHJ11927        400.98     2.6182     0          2.6182     0.35      
RJHJ11928        400.11     2.9472     0          2.9472     0.35      
RJHJ11929        399.84     2.8009     0          2.8009     0.35      
RJHJ11930        399.58     2.8487     0          2.8487     0.35      
RJHJ11932        394.05     12.7659    0          12.7659    0.35      
RJHJ11933        400.48     1.404      0          1.404      0.35      
RJHJ11934        400.22     1.5477     0          1.5477     0.35      
RJHJ11938        394.05     7.8317     0          7.8317     0.35      
RJHJ11939        394.05     7.8509     0          7.8509     0.35      
RJHJ11941        398.07     4.2126     0          4.2126     0.35      
RJHJ11943        398.05     4.1555     0          4.1555     0.35      
RJHJ11945        398.05     4.0466     0          4.0466     0.35      
RJHJ11947        397.98     3.6992     0          3.6992     0.35      
RJHJ11948        397.83     3.8985     0          3.8985     0.35      
RJHJ11949        397.45     4.1318     0          4.1318     0.35      
RJHJ11950        395.37     6.0049     0          6.0049     0.35      
RJHJ11951        394.05     7.5001     0          7.5001     0.35      
RJHJ12017        406.52     2.9493     0          2.9493     0.35      
RJHJ12018        406.37     3.1037     0          3.1037     0.35      
RJHJ12019        406.06     3.4034     0          3.4034     0.35      
RJHJ12020        405.95     2.7991     0          2.7991     0.35      